># CIF file generated by openbabel 2.3.2, see http://openbabel.sf.net
data_BEB
_symmetry_cell_setting           triclinic
_symmetry_space_group_name_H-M   'P 1'
_symmetry_Int_Tables_number      1
loop_
_symmetry_equiv_pos_site_id
_symmetry_equiv_pos_as_xyz
1 x,y,z
_cell_length_a                   17.656
_cell_length_b                   17.656
_cell_length_c                   14.336000123
_cell_angle_alpha                90.0
_cell_angle_beta                 113.839998669
_cell_angle_gamma                90.0
loop_
    _atom_site_type_symbol
    _atom_site_label
    _atom_site_fract_x
    _atom_site_fract_y
    _atom_site_fract_z

Si    Si   0.60960   0.01910   0.88270
Si    Si   0.39040   0.01910   0.61730
Si    Si   0.39040   0.98090   0.11730
Si    Si   0.60960   0.98090   0.38270
Si    Si   0.10960   0.51910   0.88270
Si    Si   0.89040   0.51910   0.61730
Si    Si   0.89040   0.48090   0.11730
Si    Si   0.10960   0.48090   0.38270
Si    Si   0.48190   0.14480   0.88590
Si    Si   0.51810   0.14480   0.61410
Si    Si   0.51810   0.85520   0.11410
Si    Si   0.48190   0.85520   0.38590
Si    Si   0.98190   0.64480   0.88590
Si    Si   0.01810   0.64480   0.61410
Si    Si   0.01810   0.35520   0.11410
Si    Si   0.98190   0.35520   0.38590
Si    Si   0.79460   0.20870   0.88610
Si    Si   0.20540   0.20870   0.61390
Si    Si   0.20540   0.79130   0.11390
Si    Si   0.79460   0.79130   0.38610
Si    Si   0.29460   0.70870   0.88610
Si    Si   0.70540   0.70870   0.61390
Si    Si   0.70540   0.29130   0.11390
Si    Si   0.29460   0.29130   0.38610
Si    Si   0.66920   0.33650   0.89460
Si    Si   0.33080   0.33650   0.60540
Si    Si   0.33080   0.66350   0.10540
Si    Si   0.66920   0.66350   0.39460
Si    Si   0.16920   0.83650   0.89460
Si    Si   0.83080   0.83650   0.60540
Si    Si   0.83080   0.16350   0.10540
Si    Si   0.16920   0.16350   0.39460
Si    Si   0.91560   0.33370   0.88240
Si    Si   0.08440   0.33370   0.61760
Si    Si   0.08440   0.66630   0.11760
Si    Si   0.91560   0.66630   0.38240
Si    Si   0.41560   0.83370   0.88240
Si    Si   0.58440   0.83370   0.61760
Si    Si   0.58440   0.16630   0.11760
Si    Si   0.41560   0.16630   0.38240
Si    Si   0.79030   0.45810   0.88620
Si    Si   0.20970   0.45810   0.61380
Si    Si   0.20970   0.54190   0.11380
Si    Si   0.79030   0.54190   0.38620
Si    Si   0.29030   0.95810   0.88620
Si    Si   0.70970   0.95810   0.61380
Si    Si   0.70970   0.04190   0.11380
Si    Si   0.29030   0.04190   0.38620
Si    Si   0.50000   0.89070   0.75000
Si    Si   0.50000   0.10930   0.25000
Si    Si  -0.00000   0.39070   0.75000
Si    Si  -0.00000   0.60930   0.25000
Si    Si   0.69330   0.08200   0.74510
Si    Si   0.30670   0.08200   0.75490
Si    Si   0.30670   0.91800   0.25490
Si    Si   0.69330   0.91800   0.24510
Si    Si   0.19330   0.58200   0.74510
Si    Si   0.80670   0.58200   0.75490
Si    Si   0.80670   0.41800   0.25490
Si    Si   0.19330   0.41800   0.24510
Si    Si   0.50000   0.27510   0.75000
Si    Si   0.50000   0.72490   0.25000
Si    Si  -0.00000   0.77510   0.75000
Si    Si  -0.00000   0.22490   0.25000
O     O    0.54660   0.08740   0.87000
O     O    0.45340   0.08740   0.63000
O     O    0.45340   0.91260   0.13000
O     O    0.54660   0.91260   0.37000
O     O    0.04660   0.58740   0.87000
O     O    0.95340   0.58740   0.63000
O     O    0.95340   0.41260   0.13000
O     O    0.04660   0.41260   0.37000
O     O    0.66320   0.00180   0.00210
O     O    0.33680   0.00180   0.49790
O     O    0.33680   0.99820   0.99790
O     O    0.66320   0.99820   0.50210
O     O    0.16320   0.50180   0.00210
O     O    0.83680   0.50180   0.49790
O     O    0.83680   0.49820   0.99790
O     O    0.16320   0.49820   0.50210
O     O    0.56580   0.93910   0.84270
O     O    0.43420   0.93910   0.65730
O     O    0.43420   0.06090   0.15730
O     O    0.56580   0.06090   0.34270
O     O    0.06580   0.43910   0.84270
O     O    0.93420   0.43910   0.65730
O     O    0.93420   0.56090   0.15730
O     O    0.06580   0.56090   0.34270
O     O    0.67290   0.04060   0.83080
O     O    0.32710   0.04060   0.66920
O     O    0.32710   0.95940   0.16920
O     O    0.67290   0.95940   0.33080
O     O    0.17290   0.54060   0.83080
O     O    0.82710   0.54060   0.66920
O     O    0.82710   0.45940   0.16920
O     O    0.17290   0.45940   0.33080
O     O    0.50970   0.15750   0.00650
O     O    0.49030   0.15750   0.49350
O     O    0.49030   0.84250   0.99350
O     O    0.50970   0.84250   0.50650
O     O    0.00970   0.65750   0.00650
O     O    0.99030   0.65750   0.49350
O     O    0.99030   0.34250   0.99350
O     O    0.00970   0.34250   0.50650
O     O    0.38570   0.11350   0.85290
O     O    0.61430   0.11350   0.64710
O     O    0.61430   0.88650   0.14710
O     O    0.38570   0.88650   0.35290
O     O    0.88570   0.61350   0.85290
O     O    0.11430   0.61350   0.64710
O     O    0.11430   0.38650   0.14710
O     O    0.88570   0.38650   0.35290
O     O    0.48720   0.22600   0.83470
O     O    0.51280   0.22600   0.66530
O     O    0.51280   0.77400   0.16530
O     O    0.48720   0.77400   0.33470
O     O    0.98720   0.72600   0.83470
O     O    0.01280   0.72600   0.66530
O     O    0.01280   0.27400   0.16530
O     O    0.98720   0.27400   0.33470
O     O    0.72220   0.26710   0.87850
O     O    0.27780   0.26710   0.62150
O     O    0.27780   0.73290   0.12150
O     O    0.72220   0.73290   0.37850
O     O    0.22220   0.76710   0.87850
O     O    0.77780   0.76710   0.62150
O     O    0.77780   0.23290   0.12150
O     O    0.22220   0.23290   0.37850
O     O    0.87110   0.25140   0.87710
O     O    0.12890   0.25140   0.62290
O     O    0.12890   0.74860   0.12290
O     O    0.87110   0.74860   0.37710
O     O    0.37110   0.75140   0.87710
O     O    0.62890   0.75140   0.62290
O     O    0.62890   0.24860   0.12290
O     O    0.37110   0.24860   0.37710
O     O    0.75750   0.15020   0.79440
O     O    0.24250   0.15020   0.70560
O     O    0.24250   0.84980   0.20560
O     O    0.75750   0.84980   0.29440
O     O    0.25750   0.65020   0.79440
O     O    0.74250   0.65020   0.70560
O     O    0.74250   0.34980   0.20560
O     O    0.25750   0.34980   0.29440
O     O    0.83140   0.16400   0.99410
O     O    0.16860   0.16400   0.50590
O     O    0.16860   0.83600   0.00590
O     O    0.83140   0.83600   0.49410
O     O    0.33140   0.66400   0.99410
O     O    0.66860   0.66400   0.50590
O     O    0.66860   0.33600   0.00590
O     O    0.33140   0.33600   0.49410
O     O    0.70130   0.41030   0.87440
O     O    0.29870   0.41030   0.62560
O     O    0.29870   0.58970   0.12560
O     O    0.70130   0.58970   0.37440
O     O    0.20130   0.91030   0.87440
O     O    0.79870   0.91030   0.62560
O     O    0.79870   0.08970   0.12560
O     O    0.20130   0.08970   0.37440
O     O    0.58060   0.32700   0.81550
O     O    0.41940   0.32700   0.68450
O     O    0.41940   0.67300   0.18450
O     O    0.58060   0.67300   0.31550
O     O    0.08060   0.82700   0.81550
O     O    0.91940   0.82700   0.68450
O     O    0.91940   0.17300   0.18450
O     O    0.08060   0.17300   0.31550
O     O    0.84880   0.39940   0.85990
O     O    0.15120   0.39940   0.64010
O     O    0.15120   0.60060   0.14010
O     O    0.84880   0.60060   0.35990
O     O    0.34880   0.89940   0.85990
O     O    0.65120   0.89940   0.64010
O     O    0.65120   0.10060   0.14010
O     O    0.34880   0.10060   0.35990
O     O    0.95540   0.33420   0.79950
O     O    0.04460   0.33420   0.70050
O     O    0.04460   0.66580   0.20050
O     O    0.95540   0.66580   0.29950
O     O    0.45540   0.83420   0.79950
O     O    0.54460   0.83420   0.70050
O     O    0.54460   0.16580   0.20050
O     O    0.45540   0.16580   0.29950
O     O    0.76330   0.52380   0.80250
O     O    0.23670   0.52380   0.69750
O     O    0.23670   0.47620   0.19750
O     O    0.76330   0.47620   0.30250
O     O    0.26330   0.02380   0.80250
O     O    0.73670   0.02380   0.69750
O     O    0.73670   0.97620   0.19750
O     O    0.26330   0.97620   0.30250

