# CIF file created by ISOCIF, version 3.0.3               
# Space Group: 166 R-3m       D3d-5
# Space-group preferences: hexagonal axes
# Lattice parameters: a=13.67500, b=13.67500, c=14.76700, alpha=90.00000, beta=90.00000, gamma=120.00000
# O1 18h (x,-x,z), x=-0.09800, z=0.12270
# O2 18g (x,0,1/2), x=0.35660
# O3 18h (x,-x,z), x=0.12025, z=0.13150
# O4 18f (x,0,0), x=0.25770
# T1 36i (x,y,z), x=-0.00030, y=0.22640, z=0.10510

data_isocif-output
_audit_creation_method ISOCIF

_cell_length_a    13.67500
_cell_length_b    13.67500
_cell_length_c    14.76700
_cell_angle_alpha 90.00000
_cell_angle_beta  90.00000
_cell_angle_gamma 120.00000
_cell_volume      2391.53960

_symmetry_space_group_name_H-M "R -3 2/m (hexagonal axes)"
_symmetry_Int_Tables_number 166
_space_group.reference_setting '166:-R 3 2"'
_space_group.transform_Pp_abc a,b,c;0,0,0

loop_
_space_group_symop_id
_space_group_symop_operation_xyz
1 x,y,z
2 -y,x-y,z
3 -x+y,-x,z
4 y,x,-z
5 -x,-x+y,-z
6 x-y,-y,-z
7 -x,-y,-z
8 y,-x+y,-z
9 x-y,x,-z
10 -y,-x,z
11 x,x-y,z
12 -x+y,y,z
13 x+1/3,y+2/3,z+2/3
14 -y+1/3,x-y+2/3,z+2/3
15 -x+y+1/3,-x+2/3,z+2/3
16 y+1/3,x+2/3,-z+2/3
17 -x+1/3,-x+y+2/3,-z+2/3
18 x-y+1/3,-y+2/3,-z+2/3
19 -x+1/3,-y+2/3,-z+2/3
20 y+1/3,-x+y+2/3,-z+2/3
21 x-y+1/3,x+2/3,-z+2/3
22 -y+1/3,-x+2/3,z+2/3
23 x+1/3,x-y+2/3,z+2/3
24 -x+y+1/3,y+2/3,z+2/3
25 x+2/3,y+1/3,z+1/3
26 -y+2/3,x-y+1/3,z+1/3
27 -x+y+2/3,-x+1/3,z+1/3
28 y+2/3,x+1/3,-z+1/3
29 -x+2/3,-x+y+1/3,-z+1/3
30 x-y+2/3,-y+1/3,-z+1/3
31 -x+2/3,-y+1/3,-z+1/3
32 y+2/3,-x+y+1/3,-z+1/3
33 x-y+2/3,x+1/3,-z+1/3
34 -y+2/3,-x+1/3,z+1/3
35 x+2/3,x-y+1/3,z+1/3
36 -x+y+2/3,y+1/3,z+1/3

loop_
_atom_site_label
_atom_site_type_symbol
_atom_site_symmetry_multiplicity
_atom_site_Wyckoff_label
_atom_site_fract_x
_atom_site_fract_y
_atom_site_fract_z
_atom_site_occupancy
_atom_site_fract_symmform
O1 O   18 h -0.09800 0.09800 0.12270 1.00000 Dx,-Dx,Dz 
O2 O   18 g 0.35660  0.00000 0.50000 1.00000 Dx,0,0    
O3 O   18 h 0.12025  0.87975 0.13150 1.00000 Dx,-Dx,Dz 
O4 O   18 f 0.25770  0.00000 0.00000 1.00000 Dx,0,0    
T1 Si  36 i -0.00030 0.22640 0.10510 1.00000 Dx,Dy,Dz  

# end of cif
